# File generated by Flopy version 3.9.2 on 11/13/2025 at 09:36:20.
BEGIN options
END options

BEGIN dimensions
  MAXBOUND  998
END dimensions

BEGIN period  1
  1 1 2 70 1.92424153E-09
  1 1 3 70 1.92424153E-09
  1 1 4 70 1.92424153E-09
  1 1 5 70 1.92424153E-09
  1 1 6 70 1.92424153E-09
  1 1 7 70 1.92424153E-09
  1 1 8 70 1.92424153E-09
  1 1 9 70 1.92424153E-09
  1 1 10 70 1.92424153E-09
  1 1 11 70 1.92424153E-09
  1 1 12 70 1.92424153E-09
  1 1 13 70 1.92424153E-09
  1 1 14 70 1.92424153E-09
  1 1 15 70 1.92424153E-09
  1 1 16 70 1.92424153E-09
  1 1 17 70 1.92424153E-09
  1 1 18 70 1.92424153E-09
  1 1 19 70 1.92424153E-09
  1 1 20 70 1.92424153E-09
  1 1 21 70 1.92424153E-09
  1 1 22 70 1.92424153E-09
  1 1 23 70 1.92424153E-09
  1 1 24 70 1.92424153E-09
  1 1 25 70 1.92424153E-09
  1 1 26 70 1.92424153E-09
  1 1 27 70 1.92424153E-09
  1 1 28 70 1.92424153E-09
  1 1 29 70 1.92424153E-09
  1 1 30 70 1.92424153E-09
  1 1 31 70 1.92424153E-09
  1 1 32 70 1.92424153E-09
  1 1 33 70 1.92424153E-09
  1 1 34 70 1.92424153E-09
  1 1 35 70 1.92424153E-09
  1 1 36 70 1.92424153E-09
  1 1 37 70 1.92424153E-09
  1 1 38 70 1.92424153E-09
  1 1 39 70 1.92424153E-09
  1 1 40 70 1.92424153E-09
  1 1 41 70 1.92424153E-09
  1 1 42 70 1.92424153E-09
  1 1 43 70 1.92424153E-09
  1 1 44 70 1.92424153E-09
  1 1 45 70 1.92424153E-09
  1 1 46 70 1.92424153E-09
  1 1 47 70 1.92424153E-09
  1 1 48 70 1.92424153E-09
  1 1 49 70 1.92424153E-09
  1 1 50 70 1.92424153E-09
  1 1 51 70 1.92424153E-09
  1 1 52 70 1.92424153E-09
  1 1 53 70 1.92424153E-09
  1 1 54 70 1.92424153E-09
  1 1 55 70 1.92424153E-09
  1 1 56 70 1.92424153E-09
  1 1 57 70 1.92424153E-09
  1 1 58 70 1.92424153E-09
  1 1 59 70 1.92424153E-09
  1 1 60 70 1.92424153E-09
  1 1 61 70 1.92424153E-09
  1 1 62 70 1.92424153E-09
  1 1 63 70 1.92424153E-09
  1 1 64 70 1.92424153E-09
  1 1 65 70 1.92424153E-09
  1 1 66 70 1.92424153E-09
  1 1 67 70 1.92424153E-09
  1 1 68 70 1.92424153E-09
  1 1 69 70 1.92424153E-09
  1 1 70 70 1.92424153E-09
  1 1 71 70 1.92424153E-09
  1 1 72 70 1.92424153E-09
  1 1 73 70 1.92424153E-09
  1 1 74 70 1.92424153E-09
  1 1 75 70 1.92424153E-09
  1 1 76 70 1.92424153E-09
  1 1 77 70 1.92424153E-09
  1 1 78 70 1.92424153E-09
  1 1 79 70 1.92424153E-09
  1 1 80 70 1.92424153E-09
  1 1 81 70 1.92424153E-09
  1 1 82 70 1.92424153E-09
  1 1 83 70 1.92424153E-09
  1 1 84 70 1.92424153E-09
  1 1 85 70 1.92424153E-09
  1 1 86 70 1.92424153E-09
  1 1 87 70 1.92424153E-09
  1 1 88 70 1.92424153E-09
  1 1 89 70 1.92424153E-09
  1 1 90 70 1.92424153E-09
  1 1 91 70 1.92424153E-09
  1 1 92 70 1.92424153E-09
  1 1 93 70 1.92424153E-09
  1 1 94 70 1.92424153E-09
  1 1 95 70 1.92424153E-09
  1 1 96 70 1.92424153E-09
  1 1 97 70 1.92424153E-09
  1 1 98 70 1.92424153E-09
  1 1 99 70 1.92424153E-09
  1 1 100 70 1.92424153E-09
  1 1 101 70 8.62556171E-08
  1 1 102 70 8.62556171E-08
  1 1 103 70 8.62556171E-08
  1 1 104 70 8.62556171E-08
  1 1 105 70 8.62556171E-08
  1 1 106 70 8.62556171E-08
  1 1 107 70 8.62556171E-08
  1 1 108 70 8.62556171E-08
  1 1 109 70 8.62556171E-08
  1 1 110 70 8.62556171E-08
  1 1 111 70 8.62556171E-08
  1 1 112 70 8.62556171E-08
  1 1 113 70 8.62556171E-08
  1 1 114 70 8.62556171E-08
  1 1 115 70 8.62556171E-08
  1 1 116 70 8.62556171E-08
  1 1 117 70 8.62556171E-08
  1 1 118 70 8.62556171E-08
  1 1 119 70 8.62556171E-08
  1 1 120 70 8.62556171E-08
  1 1 121 70 8.62556171E-08
  1 1 122 70 8.62556171E-08
  1 1 123 70 8.62556171E-08
  1 1 124 70 8.62556171E-08
  1 1 125 70 8.62556171E-08
  1 1 126 70 8.62556171E-08
  1 1 127 70 8.62556171E-08
  1 1 128 70 8.62556171E-08
  1 1 129 70 8.62556171E-08
  1 1 130 70 8.62556171E-08
  1 1 131 70 8.62556171E-08
  1 1 132 70 8.62556171E-08
  1 1 133 70 8.62556171E-08
  1 1 134 70 8.62556171E-08
  1 1 135 70 8.62556171E-08
  1 1 136 70 8.62556171E-08
  1 1 137 70 8.62556171E-08
  1 1 138 70 8.62556171E-08
  1 1 139 70 8.62556171E-08
  1 1 140 70 8.62556171E-08
  1 1 141 70 8.62556171E-08
  1 1 142 70 8.62556171E-08
  1 1 143 70 8.62556171E-08
  1 1 144 70 8.62556171E-08
  1 1 145 70 8.62556171E-08
  1 1 146 70 8.62556171E-08
  1 1 147 70 8.62556171E-08
  1 1 148 70 8.62556171E-08
  1 1 149 70 8.62556171E-08
  1 1 150 70 8.62556171E-08
  1 1 151 70 8.62556171E-08
  1 1 152 70 8.62556171E-08
  1 1 153 70 8.62556171E-08
  1 1 154 70 8.62556171E-08
  1 1 155 70 8.62556171E-08
  1 1 156 70 8.62556171E-08
  1 1 157 70 8.62556171E-08
  1 1 158 70 8.62556171E-08
  1 1 159 70 8.62556171E-08
  1 1 160 70 8.62556171E-08
  1 1 161 70 8.62556171E-08
  1 1 162 70 8.62556171E-08
  1 1 163 70 8.62556171E-08
  1 1 164 70 8.62556171E-08
  1 1 165 70 8.62556171E-08
  1 1 166 70 8.62556171E-08
  1 1 167 70 8.62556171E-08
  1 1 168 70 8.62556171E-08
  1 1 169 70 8.62556171E-08
  1 1 170 70 8.62556171E-08
  1 1 171 70 8.62556171E-08
  1 1 172 70 8.62556171E-08
  1 1 173 70 8.62556171E-08
  1 1 174 70 8.62556171E-08
  1 1 175 70 8.62556171E-08
  1 1 176 70 8.62556171E-08
  1 1 177 70 8.62556171E-08
  1 1 178 70 8.62556171E-08
  1 1 179 70 8.62556171E-08
  1 1 180 70 8.62556171E-08
  1 1 181 70 8.62556171E-08
  1 1 182 70 8.62556171E-08
  1 1 183 70 8.62556171E-08
  1 1 184 70 8.62556171E-08
  1 1 185 70 8.62556171E-08
  1 1 186 70 8.62556171E-08
  1 1 187 70 8.62556171E-08
  1 1 188 70 8.62556171E-08
  1 1 189 70 8.62556171E-08
  1 1 190 70 8.62556171E-08
  1 1 191 70 8.62556171E-08
  1 1 192 70 8.62556171E-08
  1 1 193 70 8.62556171E-08
  1 1 194 70 8.62556171E-08
  1 1 195 70 8.62556171E-08
  1 1 196 70 8.62556171E-08
  1 1 197 70 8.62556171E-08
  1 1 198 70 8.62556171E-08
  1 1 199 70 8.62556171E-08
  1 1 200 70 8.62556171E-08
  1 1 201 70 8.62556171E-08
  1 1 202 70 8.62556171E-08
  1 1 203 70 8.62556171E-08
  1 1 204 70 8.62556171E-08
  1 1 205 70 8.62556171E-08
  1 1 206 70 8.62556171E-08
  1 1 207 70 8.62556171E-08
  1 1 208 70 8.62556171E-08
  1 1 209 70 8.62556171E-08
  1 1 210 70 8.62556171E-08
  1 1 211 70 8.62556171E-08
  1 1 212 70 8.62556171E-08
  1 1 213 70 8.62556171E-08
  1 1 214 70 8.62556171E-08
  1 1 215 70 8.62556171E-08
  1 1 216 70 8.62556171E-08
  1 1 217 70 8.62556171E-08
  1 1 218 70 8.62556171E-08
  1 1 219 70 8.62556171E-08
  1 1 220 70 8.62556171E-08
  1 1 221 70 8.62556171E-08
  1 1 222 70 8.62556171E-08
  1 1 223 70 8.62556171E-08
  1 1 224 70 8.62556171E-08
  1 1 225 70 8.62556171E-08
  1 1 226 70 8.62556171E-08
  1 1 227 70 8.62556171E-08
  1 1 228 70 8.62556171E-08
  1 1 229 70 8.62556171E-08
  1 1 230 70 8.62556171E-08
  1 1 231 70 8.62556171E-08
  1 1 232 70 8.62556171E-08
  1 1 233 70 8.62556171E-08
  1 1 234 70 8.62556171E-08
  1 1 235 70 8.62556171E-08
  1 1 236 70 8.62556171E-08
  1 1 237 70 8.62556171E-08
  1 1 238 70 8.62556171E-08
  1 1 239 70 8.62556171E-08
  1 1 240 70 8.62556171E-08
  1 1 241 70 8.62556171E-08
  1 1 242 70 8.62556171E-08
  1 1 243 70 8.62556171E-08
  1 1 244 70 8.62556171E-08
  1 1 245 70 8.62556171E-08
  1 1 246 70 8.62556171E-08
  1 1 247 70 8.62556171E-08
  1 1 248 70 8.62556171E-08
  1 1 249 70 8.62556171E-08
  1 1 250 70 8.62556171E-08
  1 1 251 70 8.62556171E-08
  1 1 252 70 8.62556171E-08
  1 1 253 70 8.62556171E-08
  1 1 254 70 8.62556171E-08
  1 1 255 70 8.62556171E-08
  1 1 256 70 8.62556171E-08
  1 1 257 70 8.62556171E-08
  1 1 258 70 8.62556171E-08
  1 1 259 70 8.62556171E-08
  1 1 260 70 8.62556171E-08
  1 1 261 70 8.62556171E-08
  1 1 262 70 8.62556171E-08
  1 1 263 70 8.62556171E-08
  1 1 264 70 8.62556171E-08
  1 1 265 70 8.62556171E-08
  1 1 266 70 8.62556171E-08
  1 1 267 70 8.62556171E-08
  1 1 268 70 8.62556171E-08
  1 1 269 70 8.62556171E-08
  1 1 270 70 8.62556171E-08
  1 1 271 70 8.62556171E-08
  1 1 272 70 8.62556171E-08
  1 1 273 70 8.62556171E-08
  1 1 274 70 8.62556171E-08
  1 1 275 70 8.62556171E-08
  1 1 276 70 8.62556171E-08
  1 1 277 70 8.62556171E-08
  1 1 278 70 8.62556171E-08
  1 1 279 70 8.62556171E-08
  1 1 280 70 8.62556171E-08
  1 1 281 70 8.62556171E-08
  1 1 282 70 8.62556171E-08
  1 1 283 70 8.62556171E-08
  1 1 284 70 8.62556171E-08
  1 1 285 70 8.62556171E-08
  1 1 286 70 8.62556171E-08
  1 1 287 70 8.62556171E-08
  1 1 288 70 8.62556171E-08
  1 1 289 70 8.62556171E-08
  1 1 290 70 8.62556171E-08
  1 1 291 70 8.62556171E-08
  1 1 292 70 8.62556171E-08
  1 1 293 70 8.62556171E-08
  1 1 294 70 8.62556171E-08
  1 1 295 70 8.62556171E-08
  1 1 296 70 8.62556171E-08
  1 1 297 70 8.62556171E-08
  1 1 298 70 8.62556171E-08
  1 1 299 70 8.62556171E-08
  1 1 300 70 8.62556171E-08
  1 1 301 70 6.35427760E-08
  1 1 302 70 6.35427760E-08
  1 1 303 70 6.35427760E-08
  1 1 304 70 6.35427760E-08
  1 1 305 70 6.35427760E-08
  1 1 306 70 6.35427760E-08
  1 1 307 70 6.35427760E-08
  1 1 308 70 6.35427760E-08
  1 1 309 70 6.35427760E-08
  1 1 310 70 6.35427760E-08
  1 1 311 70 6.35427760E-08
  1 1 312 70 6.35427760E-08
  1 1 313 70 6.35427760E-08
  1 1 314 70 6.35427760E-08
  1 1 315 70 6.35427760E-08
  1 1 316 70 6.35427760E-08
  1 1 317 70 6.35427760E-08
  1 1 318 70 6.35427760E-08
  1 1 319 70 6.35427760E-08
  1 1 320 70 6.35427760E-08
  1 1 321 70 6.35427760E-08
  1 1 322 70 6.35427760E-08
  1 1 323 70 6.35427760E-08
  1 1 324 70 6.35427760E-08
  1 1 325 70 6.35427760E-08
  1 1 326 70 6.35427760E-08
  1 1 327 70 6.35427760E-08
  1 1 328 70 6.35427760E-08
  1 1 329 70 6.35427760E-08
  1 1 330 70 6.35427760E-08
  1 1 331 70 6.35427760E-08
  1 1 332 70 6.35427760E-08
  1 1 333 70 6.35427760E-08
  1 1 334 70 6.35427760E-08
  1 1 335 70 6.35427760E-08
  1 1 336 70 6.35427760E-08
  1 1 337 70 6.35427760E-08
  1 1 338 70 6.35427760E-08
  1 1 339 70 6.35427760E-08
  1 1 340 70 6.35427760E-08
  1 1 341 70 6.35427760E-08
  1 1 342 70 6.35427760E-08
  1 1 343 70 6.35427760E-08
  1 1 344 70 6.35427760E-08
  1 1 345 70 6.35427760E-08
  1 1 346 70 6.35427760E-08
  1 1 347 70 6.35427760E-08
  1 1 348 70 6.35427760E-08
  1 1 349 70 6.35427760E-08
  1 1 350 70 6.35427760E-08
  1 1 351 70 6.35427760E-08
  1 1 352 70 6.35427760E-08
  1 1 353 70 6.35427760E-08
  1 1 354 70 6.35427760E-08
  1 1 355 70 6.35427760E-08
  1 1 356 70 6.35427760E-08
  1 1 357 70 6.35427760E-08
  1 1 358 70 6.35427760E-08
  1 1 359 70 6.35427760E-08
  1 1 360 70 6.35427760E-08
  1 1 361 70 6.35427760E-08
  1 1 362 70 6.35427760E-08
  1 1 363 70 6.35427760E-08
  1 1 364 70 6.35427760E-08
  1 1 365 70 6.35427760E-08
  1 1 366 70 6.35427760E-08
  1 1 367 70 6.35427760E-08
  1 1 368 70 6.35427760E-08
  1 1 369 70 6.35427760E-08
  1 1 370 70 6.35427760E-08
  1 1 371 70 6.35427760E-08
  1 1 372 70 6.35427760E-08
  1 1 373 70 6.35427760E-08
  1 1 374 70 6.35427760E-08
  1 1 375 70 6.35427760E-08
  1 1 376 70 6.35427760E-08
  1 1 377 70 6.35427760E-08
  1 1 378 70 6.35427760E-08
  1 1 379 70 6.35427760E-08
  1 1 380 70 6.35427760E-08
  1 1 381 70 6.35427760E-08
  1 1 382 70 6.35427760E-08
  1 1 383 70 6.35427760E-08
  1 1 384 70 6.35427760E-08
  1 1 385 70 6.35427760E-08
  1 1 386 70 6.35427760E-08
  1 1 387 70 6.35427760E-08
  1 1 388 70 6.35427760E-08
  1 1 389 70 6.35427760E-08
  1 1 390 70 6.35427760E-08
  1 1 391 70 6.35427760E-08
  1 1 392 70 6.35427760E-08
  1 1 393 70 6.35427760E-08
  1 1 394 70 6.35427760E-08
  1 1 395 70 6.35427760E-08
  1 1 396 70 6.35427760E-08
  1 1 397 70 6.35427760E-08
  1 1 398 70 6.35427760E-08
  1 1 399 70 6.35427760E-08
  1 1 400 70 6.35427760E-08
  1 1 401 70 6.35427760E-08
  1 1 402 70 6.35427760E-08
  1 1 403 70 6.35427760E-08
  1 1 404 70 6.35427760E-08
  1 1 405 70 6.35427760E-08
  1 1 406 70 6.35427760E-08
  1 1 407 70 6.35427760E-08
  1 1 408 70 6.35427760E-08
  1 1 409 70 6.35427760E-08
  1 1 410 70 6.35427760E-08
  1 1 411 70 6.35427760E-08
  1 1 412 70 6.35427760E-08
  1 1 413 70 6.35427760E-08
  1 1 414 70 6.35427760E-08
  1 1 415 70 6.35427760E-08
  1 1 416 70 6.35427760E-08
  1 1 417 70 6.35427760E-08
  1 1 418 70 6.35427760E-08
  1 1 419 70 6.35427760E-08
  1 1 420 70 6.35427760E-08
  1 1 421 70 6.35427760E-08
  1 1 422 70 6.35427760E-08
  1 1 423 70 6.35427760E-08
  1 1 424 70 6.35427760E-08
  1 1 425 70 6.35427760E-08
  1 1 426 70 6.35427760E-08
  1 1 427 70 6.35427760E-08
  1 1 428 70 6.35427760E-08
  1 1 429 70 6.35427760E-08
  1 1 430 70 6.35427760E-08
  1 1 431 70 6.35427760E-08
  1 1 432 70 6.35427760E-08
  1 1 433 70 6.35427760E-08
  1 1 434 70 6.35427760E-08
  1 1 435 70 6.35427760E-08
  1 1 436 70 6.35427760E-08
  1 1 437 70 6.35427760E-08
  1 1 438 70 6.35427760E-08
  1 1 439 70 6.35427760E-08
  1 1 440 70 6.35427760E-08
  1 1 441 70 6.35427760E-08
  1 1 442 70 6.35427760E-08
  1 1 443 70 6.35427760E-08
  1 1 444 70 6.35427760E-08
  1 1 445 70 6.35427760E-08
  1 1 446 70 6.35427760E-08
  1 1 447 70 6.35427760E-08
  1 1 448 70 6.35427760E-08
  1 1 449 70 6.35427760E-08
  1 1 450 70 6.35427760E-08
  1 1 451 70 6.35427760E-08
  1 1 452 70 6.35427760E-08
  1 1 453 70 6.35427760E-08
  1 1 454 70 6.35427760E-08
  1 1 455 70 6.35427760E-08
  1 1 456 70 6.35427760E-08
  1 1 457 70 6.35427760E-08
  1 1 458 70 6.35427760E-08
  1 1 459 70 6.35427760E-08
  1 1 460 70 6.35427760E-08
  1 1 461 70 6.35427760E-08
  1 1 462 70 6.35427760E-08
  1 1 463 70 6.35427760E-08
  1 1 464 70 6.35427760E-08
  1 1 465 70 6.35427760E-08
  1 1 466 70 6.35427760E-08
  1 1 467 70 6.35427760E-08
  1 1 468 70 6.35427760E-08
  1 1 469 70 6.35427760E-08
  1 1 470 70 6.35427760E-08
  1 1 471 70 6.35427760E-08
  1 1 472 70 6.35427760E-08
  1 1 473 70 6.35427760E-08
  1 1 474 70 6.35427760E-08
  1 1 475 70 6.35427760E-08
  1 1 476 70 6.35427760E-08
  1 1 477 70 6.35427760E-08
  1 1 478 70 6.35427760E-08
  1 1 479 70 6.35427760E-08
  1 1 480 70 6.35427760E-08
  1 1 481 70 6.35427760E-08
  1 1 482 70 6.35427760E-08
  1 1 483 70 6.35427760E-08
  1 1 484 70 6.35427760E-08
  1 1 485 70 6.35427760E-08
  1 1 486 70 6.35427760E-08
  1 1 487 70 6.35427760E-08
  1 1 488 70 6.35427760E-08
  1 1 489 70 6.35427760E-08
  1 1 490 70 6.35427760E-08
  1 1 491 70 6.35427760E-08
  1 1 492 70 6.35427760E-08
  1 1 493 70 6.35427760E-08
  1 1 494 70 6.35427760E-08
  1 1 495 70 6.35427760E-08
  1 1 496 70 6.35427760E-08
  1 1 497 70 6.35427760E-08
  1 1 498 70 6.35427760E-08
  1 1 499 70 6.35427760E-08
  1 1 500 70 6.35427760E-08
  1 1 501 70 6.35427760E-08
  1 1 502 70 6.35427760E-08
  1 1 503 70 6.35427760E-08
  1 1 504 70 6.35427760E-08
  1 1 505 70 6.35427760E-08
  1 1 506 70 6.35427760E-08
  1 1 507 70 6.35427760E-08
  1 1 508 70 6.35427760E-08
  1 1 509 70 6.35427760E-08
  1 1 510 70 6.35427760E-08
  1 1 511 70 6.35427760E-08
  1 1 512 70 6.35427760E-08
  1 1 513 70 6.35427760E-08
  1 1 514 70 6.35427760E-08
  1 1 515 70 6.35427760E-08
  1 1 516 70 6.35427760E-08
  1 1 517 70 6.35427760E-08
  1 1 518 70 6.35427760E-08
  1 1 519 70 6.35427760E-08
  1 1 520 70 6.35427760E-08
  1 1 521 70 6.35427760E-08
  1 1 522 70 6.35427760E-08
  1 1 523 70 6.35427760E-08
  1 1 524 70 6.35427760E-08
  1 1 525 70 6.35427760E-08
  1 1 526 70 6.35427760E-08
  1 1 527 70 6.35427760E-08
  1 1 528 70 6.35427760E-08
  1 1 529 70 6.35427760E-08
  1 1 530 70 6.35427760E-08
  1 1 531 70 6.35427760E-08
  1 1 532 70 6.35427760E-08
  1 1 533 70 6.35427760E-08
  1 1 534 70 6.35427760E-08
  1 1 535 70 6.35427760E-08
  1 1 536 70 6.35427760E-08
  1 1 537 70 6.35427760E-08
  1 1 538 70 6.35427760E-08
  1 1 539 70 6.35427760E-08
  1 1 540 70 6.35427760E-08
  1 1 541 70 6.35427760E-08
  1 1 542 70 6.35427760E-08
  1 1 543 70 6.35427760E-08
  1 1 544 70 6.35427760E-08
  1 1 545 70 6.35427760E-08
  1 1 546 70 6.35427760E-08
  1 1 547 70 6.35427760E-08
  1 1 548 70 6.35427760E-08
  1 1 549 70 6.35427760E-08
  1 1 550 70 6.35427760E-08
  1 1 551 70 2.82193477E-09
  1 1 552 70 2.82193477E-09
  1 1 553 70 2.82193477E-09
  1 1 554 70 2.82193477E-09
  1 1 555 70 2.82193477E-09
  1 1 556 70 2.82193477E-09
  1 1 557 70 2.82193477E-09
  1 1 558 70 2.82193477E-09
  1 1 559 70 2.82193477E-09
  1 1 560 70 2.82193477E-09
  1 1 561 70 2.82193477E-09
  1 1 562 70 2.82193477E-09
  1 1 563 70 2.82193477E-09
  1 1 564 70 2.82193477E-09
  1 1 565 70 2.82193477E-09
  1 1 566 70 2.82193477E-09
  1 1 567 70 2.82193477E-09
  1 1 568 70 2.82193477E-09
  1 1 569 70 2.82193477E-09
  1 1 570 70 2.82193477E-09
  1 1 571 70 2.82193477E-09
  1 1 572 70 2.82193477E-09
  1 1 573 70 2.82193477E-09
  1 1 574 70 2.82193477E-09
  1 1 575 70 2.82193477E-09
  1 1 576 70 2.82193477E-09
  1 1 577 70 2.82193477E-09
  1 1 578 70 2.82193477E-09
  1 1 579 70 2.82193477E-09
  1 1 580 70 2.82193477E-09
  1 1 581 70 2.82193477E-09
  1 1 582 70 2.82193477E-09
  1 1 583 70 2.82193477E-09
  1 1 584 70 2.82193477E-09
  1 1 585 70 2.82193477E-09
  1 1 586 70 2.82193477E-09
  1 1 587 70 2.82193477E-09
  1 1 588 70 2.82193477E-09
  1 1 589 70 2.82193477E-09
  1 1 590 70 2.82193477E-09
  1 1 591 70 2.82193477E-09
  1 1 592 70 2.82193477E-09
  1 1 593 70 2.82193477E-09
  1 1 594 70 2.82193477E-09
  1 1 595 70 2.82193477E-09
  1 1 596 70 2.82193477E-09
  1 1 597 70 2.82193477E-09
  1 1 598 70 2.82193477E-09
  1 1 599 70 2.82193477E-09
  1 1 600 70 2.82193477E-09
  1 1 601 70 2.82193477E-09
  1 1 602 70 2.82193477E-09
  1 1 603 70 2.82193477E-09
  1 1 604 70 2.82193477E-09
  1 1 605 70 2.82193477E-09
  1 1 606 70 2.82193477E-09
  1 1 607 70 2.82193477E-09
  1 1 608 70 2.82193477E-09
  1 1 609 70 2.82193477E-09
  1 1 610 70 2.82193477E-09
  1 1 611 70 2.82193477E-09
  1 1 612 70 2.82193477E-09
  1 1 613 70 2.82193477E-09
  1 1 614 70 2.82193477E-09
  1 1 615 70 2.82193477E-09
  1 1 616 70 2.82193477E-09
  1 1 617 70 2.82193477E-09
  1 1 618 70 2.82193477E-09
  1 1 619 70 2.82193477E-09
  1 1 620 70 2.82193477E-09
  1 1 621 70 2.82193477E-09
  1 1 622 70 2.82193477E-09
  1 1 623 70 2.82193477E-09
  1 1 624 70 2.82193477E-09
  1 1 625 70 2.82193477E-09
  1 1 626 70 2.82193477E-09
  1 1 627 70 2.82193477E-09
  1 1 628 70 2.82193477E-09
  1 1 629 70 2.82193477E-09
  1 1 630 70 2.82193477E-09
  1 1 631 70 2.82193477E-09
  1 1 632 70 2.82193477E-09
  1 1 633 70 2.82193477E-09
  1 1 634 70 2.82193477E-09
  1 1 635 70 2.82193477E-09
  1 1 636 70 2.82193477E-09
  1 1 637 70 2.82193477E-09
  1 1 638 70 2.82193477E-09
  1 1 639 70 2.82193477E-09
  1 1 640 70 2.82193477E-09
  1 1 641 70 2.82193477E-09
  1 1 642 70 2.82193477E-09
  1 1 643 70 2.82193477E-09
  1 1 644 70 2.82193477E-09
  1 1 645 70 2.82193477E-09
  1 1 646 70 2.82193477E-09
  1 1 647 70 2.82193477E-09
  1 1 648 70 2.82193477E-09
  1 1 649 70 2.82193477E-09
  1 1 650 70 2.82193477E-09
  1 1 651 70 2.82193477E-09
  1 1 652 70 2.82193477E-09
  1 1 653 70 2.82193477E-09
  1 1 654 70 2.82193477E-09
  1 1 655 70 2.82193477E-09
  1 1 656 70 2.82193477E-09
  1 1 657 70 2.82193477E-09
  1 1 658 70 2.82193477E-09
  1 1 659 70 2.82193477E-09
  1 1 660 70 2.82193477E-09
  1 1 661 70 2.82193477E-09
  1 1 662 70 2.82193477E-09
  1 1 663 70 2.82193477E-09
  1 1 664 70 2.82193477E-09
  1 1 665 70 2.82193477E-09
  1 1 666 70 2.82193477E-09
  1 1 667 70 2.82193477E-09
  1 1 668 70 2.82193477E-09
  1 1 669 70 2.82193477E-09
  1 1 670 70 2.82193477E-09
  1 1 671 70 2.82193477E-09
  1 1 672 70 2.82193477E-09
  1 1 673 70 2.82193477E-09
  1 1 674 70 2.82193477E-09
  1 1 675 70 2.82193477E-09
  1 1 676 70 2.82193477E-09
  1 1 677 70 2.82193477E-09
  1 1 678 70 2.82193477E-09
  1 1 679 70 2.82193477E-09
  1 1 680 70 2.82193477E-09
  1 1 681 70 2.82193477E-09
  1 1 682 70 2.82193477E-09
  1 1 683 70 2.82193477E-09
  1 1 684 70 2.82193477E-09
  1 1 685 70 2.82193477E-09
  1 1 686 70 2.82193477E-09
  1 1 687 70 2.82193477E-09
  1 1 688 70 2.82193477E-09
  1 1 689 70 2.82193477E-09
  1 1 690 70 2.82193477E-09
  1 1 691 70 2.82193477E-09
  1 1 692 70 2.82193477E-09
  1 1 693 70 2.82193477E-09
  1 1 694 70 2.82193477E-09
  1 1 695 70 2.82193477E-09
  1 1 696 70 2.82193477E-09
  1 1 697 70 2.82193477E-09
  1 1 698 70 2.82193477E-09
  1 1 699 70 2.82193477E-09
  1 1 700 70 2.82193477E-09
  1 1 701 70 2.33823065E-08
  1 1 702 70 2.33823065E-08
  1 1 703 70 2.33823065E-08
  1 1 704 70 2.33823065E-08
  1 1 705 70 2.33823065E-08
  1 1 706 70 2.33823065E-08
  1 1 707 70 2.33823065E-08
  1 1 708 70 2.33823065E-08
  1 1 709 70 2.33823065E-08
  1 1 710 70 2.33823065E-08
  1 1 711 70 2.33823065E-08
  1 1 712 70 2.33823065E-08
  1 1 713 70 2.33823065E-08
  1 1 714 70 2.33823065E-08
  1 1 715 70 2.33823065E-08
  1 1 716 70 2.33823065E-08
  1 1 717 70 2.33823065E-08
  1 1 718 70 2.33823065E-08
  1 1 719 70 2.33823065E-08
  1 1 720 70 2.33823065E-08
  1 1 721 70 2.33823065E-08
  1 1 722 70 2.33823065E-08
  1 1 723 70 2.33823065E-08
  1 1 724 70 2.33823065E-08
  1 1 725 70 2.33823065E-08
  1 1 726 70 2.33823065E-08
  1 1 727 70 2.33823065E-08
  1 1 728 70 2.33823065E-08
  1 1 729 70 2.33823065E-08
  1 1 730 70 2.33823065E-08
  1 1 731 70 2.33823065E-08
  1 1 732 70 2.33823065E-08
  1 1 733 70 2.33823065E-08
  1 1 734 70 2.33823065E-08
  1 1 735 70 2.33823065E-08
  1 1 736 70 2.33823065E-08
  1 1 737 70 2.33823065E-08
  1 1 738 70 2.33823065E-08
  1 1 739 70 2.33823065E-08
  1 1 740 70 2.33823065E-08
  1 1 741 70 2.33823065E-08
  1 1 742 70 2.33823065E-08
  1 1 743 70 2.33823065E-08
  1 1 744 70 2.33823065E-08
  1 1 745 70 2.33823065E-08
  1 1 746 70 2.33823065E-08
  1 1 747 70 2.33823065E-08
  1 1 748 70 2.33823065E-08
  1 1 749 70 2.33823065E-08
  1 1 750 70 2.33823065E-08
  1 1 751 70 2.33823065E-08
  1 1 752 70 2.33823065E-08
  1 1 753 70 2.33823065E-08
  1 1 754 70 2.33823065E-08
  1 1 755 70 2.33823065E-08
  1 1 756 70 2.33823065E-08
  1 1 757 70 2.33823065E-08
  1 1 758 70 2.33823065E-08
  1 1 759 70 2.33823065E-08
  1 1 760 70 2.33823065E-08
  1 1 761 70 2.33823065E-08
  1 1 762 70 2.33823065E-08
  1 1 763 70 2.33823065E-08
  1 1 764 70 2.33823065E-08
  1 1 765 70 2.33823065E-08
  1 1 766 70 2.33823065E-08
  1 1 767 70 2.33823065E-08
  1 1 768 70 2.33823065E-08
  1 1 769 70 2.33823065E-08
  1 1 770 70 2.33823065E-08
  1 1 771 70 2.33823065E-08
  1 1 772 70 2.33823065E-08
  1 1 773 70 2.33823065E-08
  1 1 774 70 2.33823065E-08
  1 1 775 70 2.33823065E-08
  1 1 776 70 2.33823065E-08
  1 1 777 70 2.33823065E-08
  1 1 778 70 2.33823065E-08
  1 1 779 70 2.33823065E-08
  1 1 780 70 2.33823065E-08
  1 1 781 70 2.33823065E-08
  1 1 782 70 2.33823065E-08
  1 1 783 70 2.33823065E-08
  1 1 784 70 2.33823065E-08
  1 1 785 70 2.33823065E-08
  1 1 786 70 2.33823065E-08
  1 1 787 70 2.33823065E-08
  1 1 788 70 2.33823065E-08
  1 1 789 70 2.33823065E-08
  1 1 790 70 2.33823065E-08
  1 1 791 70 2.33823065E-08
  1 1 792 70 2.33823065E-08
  1 1 793 70 2.33823065E-08
  1 1 794 70 2.33823065E-08
  1 1 795 70 2.33823065E-08
  1 1 796 70 2.33823065E-08
  1 1 797 70 2.33823065E-08
  1 1 798 70 2.33823065E-08
  1 1 799 70 2.33823065E-08
  1 1 800 70 2.33823065E-08
  1 1 801 70 2.33823065E-08
  1 1 802 70 2.33823065E-08
  1 1 803 70 2.33823065E-08
  1 1 804 70 2.33823065E-08
  1 1 805 70 2.33823065E-08
  1 1 806 70 2.33823065E-08
  1 1 807 70 2.33823065E-08
  1 1 808 70 2.33823065E-08
  1 1 809 70 2.33823065E-08
  1 1 810 70 2.33823065E-08
  1 1 811 70 2.33823065E-08
  1 1 812 70 2.33823065E-08
  1 1 813 70 2.33823065E-08
  1 1 814 70 2.33823065E-08
  1 1 815 70 2.33823065E-08
  1 1 816 70 2.33823065E-08
  1 1 817 70 2.33823065E-08
  1 1 818 70 2.33823065E-08
  1 1 819 70 2.33823065E-08
  1 1 820 70 2.33823065E-08
  1 1 821 70 2.33823065E-08
  1 1 822 70 2.33823065E-08
  1 1 823 70 2.33823065E-08
  1 1 824 70 2.33823065E-08
  1 1 825 70 2.33823065E-08
  1 1 826 70 2.33823065E-08
  1 1 827 70 2.33823065E-08
  1 1 828 70 2.33823065E-08
  1 1 829 70 2.33823065E-08
  1 1 830 70 2.33823065E-08
  1 1 831 70 2.33823065E-08
  1 1 832 70 2.33823065E-08
  1 1 833 70 2.33823065E-08
  1 1 834 70 2.33823065E-08
  1 1 835 70 2.33823065E-08
  1 1 836 70 2.33823065E-08
  1 1 837 70 2.33823065E-08
  1 1 838 70 2.33823065E-08
  1 1 839 70 2.33823065E-08
  1 1 840 70 2.33823065E-08
  1 1 841 70 2.33823065E-08
  1 1 842 70 2.33823065E-08
  1 1 843 70 2.33823065E-08
  1 1 844 70 2.33823065E-08
  1 1 845 70 2.33823065E-08
  1 1 846 70 2.33823065E-08
  1 1 847 70 2.33823065E-08
  1 1 848 70 2.33823065E-08
  1 1 849 70 2.33823065E-08
  1 1 850 70 2.33823065E-08
  1 1 851 70 2.33823065E-08
  1 1 852 70 2.33823065E-08
  1 1 853 70 2.33823065E-08
  1 1 854 70 2.33823065E-08
  1 1 855 70 2.33823065E-08
  1 1 856 70 2.33823065E-08
  1 1 857 70 2.33823065E-08
  1 1 858 70 2.33823065E-08
  1 1 859 70 2.33823065E-08
  1 1 860 70 2.33823065E-08
  1 1 861 70 2.33823065E-08
  1 1 862 70 2.33823065E-08
  1 1 863 70 2.33823065E-08
  1 1 864 70 2.33823065E-08
  1 1 865 70 2.33823065E-08
  1 1 866 70 2.33823065E-08
  1 1 867 70 2.33823065E-08
  1 1 868 70 2.33823065E-08
  1 1 869 70 2.33823065E-08
  1 1 870 70 2.33823065E-08
  1 1 871 70 2.33823065E-08
  1 1 872 70 2.33823065E-08
  1 1 873 70 2.33823065E-08
  1 1 874 70 2.33823065E-08
  1 1 875 70 2.33823065E-08
  1 1 876 70 2.33823065E-08
  1 1 877 70 2.33823065E-08
  1 1 878 70 2.33823065E-08
  1 1 879 70 2.33823065E-08
  1 1 880 70 2.33823065E-08
  1 1 881 70 2.33823065E-08
  1 1 882 70 2.33823065E-08
  1 1 883 70 2.33823065E-08
  1 1 884 70 2.33823065E-08
  1 1 885 70 2.33823065E-08
  1 1 886 70 2.33823065E-08
  1 1 887 70 2.33823065E-08
  1 1 888 70 2.33823065E-08
  1 1 889 70 2.33823065E-08
  1 1 890 70 2.33823065E-08
  1 1 891 70 2.33823065E-08
  1 1 892 70 2.33823065E-08
  1 1 893 70 2.33823065E-08
  1 1 894 70 2.33823065E-08
  1 1 895 70 2.33823065E-08
  1 1 896 70 2.33823065E-08
  1 1 897 70 2.33823065E-08
  1 1 898 70 2.33823065E-08
  1 1 899 70 2.33823065E-08
  1 1 900 70 2.33823065E-08
  1 1 901 70 2.33823065E-08
  1 1 902 70 2.33823065E-08
  1 1 903 70 2.33823065E-08
  1 1 904 70 2.33823065E-08
  1 1 905 70 2.33823065E-08
  1 1 906 70 2.33823065E-08
  1 1 907 70 2.33823065E-08
  1 1 908 70 2.33823065E-08
  1 1 909 70 2.33823065E-08
  1 1 910 70 2.33823065E-08
  1 1 911 70 2.33823065E-08
  1 1 912 70 2.33823065E-08
  1 1 913 70 2.33823065E-08
  1 1 914 70 2.33823065E-08
  1 1 915 70 2.33823065E-08
  1 1 916 70 2.33823065E-08
  1 1 917 70 2.33823065E-08
  1 1 918 70 2.33823065E-08
  1 1 919 70 2.33823065E-08
  1 1 920 70 2.33823065E-08
  1 1 921 70 2.33823065E-08
  1 1 922 70 2.33823065E-08
  1 1 923 70 2.33823065E-08
  1 1 924 70 2.33823065E-08
  1 1 925 70 2.33823065E-08
  1 1 926 70 2.33823065E-08
  1 1 927 70 2.33823065E-08
  1 1 928 70 2.33823065E-08
  1 1 929 70 2.33823065E-08
  1 1 930 70 2.33823065E-08
  1 1 931 70 2.33823065E-08
  1 1 932 70 2.33823065E-08
  1 1 933 70 2.33823065E-08
  1 1 934 70 2.33823065E-08
  1 1 935 70 2.33823065E-08
  1 1 936 70 2.33823065E-08
  1 1 937 70 2.33823065E-08
  1 1 938 70 2.33823065E-08
  1 1 939 70 2.33823065E-08
  1 1 940 70 2.33823065E-08
  1 1 941 70 2.33823065E-08
  1 1 942 70 2.33823065E-08
  1 1 943 70 2.33823065E-08
  1 1 944 70 2.33823065E-08
  1 1 945 70 2.33823065E-08
  1 1 946 70 2.33823065E-08
  1 1 947 70 2.33823065E-08
  1 1 948 70 2.33823065E-08
  1 1 949 70 2.33823065E-08
  1 1 950 70 2.33823065E-08
  1 1 951 70 2.33823065E-08
  1 1 952 70 2.33823065E-08
  1 1 953 70 2.33823065E-08
  1 1 954 70 2.33823065E-08
  1 1 955 70 2.33823065E-08
  1 1 956 70 2.33823065E-08
  1 1 957 70 2.33823065E-08
  1 1 958 70 2.33823065E-08
  1 1 959 70 2.33823065E-08
  1 1 960 70 2.33823065E-08
  1 1 961 70 2.33823065E-08
  1 1 962 70 2.33823065E-08
  1 1 963 70 2.33823065E-08
  1 1 964 70 2.33823065E-08
  1 1 965 70 2.33823065E-08
  1 1 966 70 2.33823065E-08
  1 1 967 70 2.33823065E-08
  1 1 968 70 2.33823065E-08
  1 1 969 70 2.33823065E-08
  1 1 970 70 2.33823065E-08
  1 1 971 70 2.33823065E-08
  1 1 972 70 2.33823065E-08
  1 1 973 70 2.33823065E-08
  1 1 974 70 2.33823065E-08
  1 1 975 70 2.33823065E-08
  1 1 976 70 2.33823065E-08
  1 1 977 70 2.33823065E-08
  1 1 978 70 2.33823065E-08
  1 1 979 70 2.33823065E-08
  1 1 980 70 2.33823065E-08
  1 1 981 70 2.33823065E-08
  1 1 982 70 2.33823065E-08
  1 1 983 70 2.33823065E-08
  1 1 984 70 2.33823065E-08
  1 1 985 70 2.33823065E-08
  1 1 986 70 2.33823065E-08
  1 1 987 70 2.33823065E-08
  1 1 988 70 2.33823065E-08
  1 1 989 70 2.33823065E-08
  1 1 990 70 2.33823065E-08
  1 1 991 70 2.33823065E-08
  1 1 992 70 2.33823065E-08
  1 1 993 70 2.33823065E-08
  1 1 994 70 2.33823065E-08
  1 1 995 70 2.33823065E-08
  1 1 996 70 2.33823065E-08
  1 1 997 70 2.33823065E-08
  1 1 998 70 2.33823065E-08
  1 1 999 70 2.33823065E-08
END period  1

