# File generated by Flopy version 3.9.2 on 11/13/2025 at 09:36:20.
BEGIN options
END options

BEGIN griddata
  icelltype
    CONSTANT  0
  k
    INTERNAL  FACTOR  1.0
    7.36397854E-05  7.36397854E-05  7.36397854E-05  7.36397854E-05  7.36397854E-05  7.36397854E-05  7.36397854E-05  7.36397854E-05  7.36397854E-05  7.36397854E-05  7.36397854E-05  7.36397854E-05  7.36397854E-05  7.36397854E-05  7.36397854E-05  7.36397854E-05  7.36397854E-05  7.36397854E-05  7.36397854E-05  7.36397854E-05  7.36397854E-05  7.36397854E-05  7.36397854E-05  7.36397854E-05  7.36397854E-05  7.36397854E-05  7.36397854E-05  7.36397854E-05  7.36397854E-05  7.36397854E-05  7.36397854E-05  7.36397854E-05  7.36397854E-05  7.36397854E-05  7.36397854E-05  7.36397854E-05  7.36397854E-05  7.36397854E-05  7.36397854E-05  7.36397854E-05  7.36397854E-05  7.36397854E-05  7.36397854E-05  7.36397854E-05  7.36397854E-05  7.36397854E-05  7.36397854E-05  7.36397854E-05  7.36397854E-05  7.36397854E-05  7.36397854E-05  7.36397854E-05  7.36397854E-05  7.36397854E-05  7.36397854E-05  7.36397854E-05  7.36397854E-05  7.36397854E-05  7.36397854E-05  7.36397854E-05  7.36397854E-05  7.36397854E-05  7.36397854E-05  7.36397854E-05  7.36397854E-05  7.36397854E-05  7.36397854E-05  7.36397854E-05  7.36397854E-05  7.36397854E-05  7.36397854E-05  7.36397854E-05  7.36397854E-05  7.36397854E-05  7.36397854E-05  7.36397854E-05  7.36397854E-05  7.36397854E-05  7.36397854E-05  7.36397854E-05  7.36397854E-05  7.36397854E-05  7.36397854E-05  7.36397854E-05  7.36397854E-05  7.36397854E-05  7.36397854E-05  7.36397854E-05  7.36397854E-05  7.36397854E-05  7.36397854E-05  7.36397854E-05  7.36397854E-05  7.36397854E-05  7.36397854E-05  7.36397854E-05  7.36397854E-05  7.36397854E-05  7.36397854E-05  7.36397854E-05  3.86313765E-05  3.86313765E-05  3.86313765E-05  3.86313765E-05  3.86313765E-05  3.86313765E-05  3.86313765E-05  3.86313765E-05  3.86313765E-05  3.86313765E-05  3.86313765E-05  3.86313765E-05  3.86313765E-05  3.86313765E-05  3.86313765E-05  3.86313765E-05  3.86313765E-05  3.86313765E-05  3.86313765E-05  3.86313765E-05  3.86313765E-05  3.86313765E-05  3.86313765E-05  3.86313765E-05  3.86313765E-05  3.86313765E-05  3.86313765E-05  3.86313765E-05  3.86313765E-05  3.86313765E-05  3.86313765E-05  3.86313765E-05  3.86313765E-05  3.86313765E-05  3.86313765E-05  3.86313765E-05  3.86313765E-05  3.86313765E-05  3.86313765E-05  3.86313765E-05  3.86313765E-05  3.86313765E-05  3.86313765E-05  3.86313765E-05  3.86313765E-05  3.86313765E-05  3.86313765E-05  3.86313765E-05  3.86313765E-05  3.86313765E-05  3.86313765E-05  3.86313765E-05  3.86313765E-05  3.86313765E-05  3.86313765E-05  3.86313765E-05  3.86313765E-05  3.86313765E-05  3.86313765E-05  3.86313765E-05  3.86313765E-05  3.86313765E-05  3.86313765E-05  3.86313765E-05  3.86313765E-05  3.86313765E-05  3.86313765E-05  3.86313765E-05  3.86313765E-05  3.86313765E-05  3.86313765E-05  3.86313765E-05  3.86313765E-05  3.86313765E-05  3.86313765E-05  3.86313765E-05  3.86313765E-05  3.86313765E-05  3.86313765E-05  3.86313765E-05  3.86313765E-05  3.86313765E-05  3.86313765E-05  3.86313765E-05  3.86313765E-05  3.86313765E-05  3.86313765E-05  3.86313765E-05  3.86313765E-05  3.86313765E-05  3.86313765E-05  3.86313765E-05  3.86313765E-05  3.86313765E-05  3.86313765E-05  3.86313765E-05  3.86313765E-05  3.86313765E-05  3.86313765E-05  3.86313765E-05  3.86313765E-05  3.86313765E-05  3.86313765E-05  3.86313765E-05  3.86313765E-05  3.86313765E-05  3.86313765E-05  3.86313765E-05  3.86313765E-05  3.86313765E-05  3.86313765E-05  3.86313765E-05  3.86313765E-05  3.86313765E-05  3.86313765E-05  3.86313765E-05  3.86313765E-05  3.86313765E-05  3.86313765E-05  3.86313765E-05  3.86313765E-05  3.86313765E-05  3.86313765E-05  3.86313765E-05  3.86313765E-05  3.86313765E-05  3.86313765E-05  3.86313765E-05  3.86313765E-05  3.86313765E-05  3.86313765E-05  3.86313765E-05  3.86313765E-05  3.86313765E-05  3.86313765E-05  3.86313765E-05  3.86313765E-05  3.86313765E-05  3.86313765E-05  3.86313765E-05  3.86313765E-05  3.86313765E-05  3.86313765E-05  3.86313765E-05  3.86313765E-05  3.86313765E-05  3.86313765E-05  3.86313765E-05  3.86313765E-05  3.86313765E-05  3.86313765E-05  3.86313765E-05  3.86313765E-05  3.86313765E-05  3.86313765E-05  3.86313765E-05  3.86313765E-05  3.86313765E-05  3.86313765E-05  3.86313765E-05  3.86313765E-05  3.86313765E-05  3.86313765E-05  3.86313765E-05  3.86313765E-05  3.86313765E-05  3.86313765E-05  3.86313765E-05  3.86313765E-05  3.86313765E-05  3.86313765E-05  3.86313765E-05  3.86313765E-05  3.86313765E-05  3.86313765E-05  3.86313765E-05  3.86313765E-05  3.86313765E-05  3.86313765E-05  3.86313765E-05  3.86313765E-05  3.86313765E-05  3.86313765E-05  3.86313765E-05  3.86313765E-05  3.86313765E-05  3.86313765E-05  3.86313765E-05  3.86313765E-05  3.86313765E-05  3.86313765E-05  3.86313765E-05  3.86313765E-05  3.86313765E-05  3.86313765E-05  3.86313765E-05  3.86313765E-05  3.86313765E-05  3.86313765E-05  3.86313765E-05  9.55828809E-06  9.55828809E-06  9.55828809E-06  9.55828809E-06  9.55828809E-06  9.55828809E-06  9.55828809E-06  9.55828809E-06  9.55828809E-06  9.55828809E-06  9.55828809E-06  9.55828809E-06  9.55828809E-06  9.55828809E-06  9.55828809E-06  9.55828809E-06  9.55828809E-06  9.55828809E-06  9.55828809E-06  9.55828809E-06  9.55828809E-06  9.55828809E-06  9.55828809E-06  9.55828809E-06  9.55828809E-06  9.55828809E-06  9.55828809E-06  9.55828809E-06  9.55828809E-06  9.55828809E-06  9.55828809E-06  9.55828809E-06  9.55828809E-06  9.55828809E-06  9.55828809E-06  9.55828809E-06  9.55828809E-06  9.55828809E-06  9.55828809E-06  9.55828809E-06  9.55828809E-06  9.55828809E-06  9.55828809E-06  9.55828809E-06  9.55828809E-06  9.55828809E-06  9.55828809E-06  9.55828809E-06  9.55828809E-06  9.55828809E-06  9.55828809E-06  9.55828809E-06  9.55828809E-06  9.55828809E-06  9.55828809E-06  9.55828809E-06  9.55828809E-06  9.55828809E-06  9.55828809E-06  9.55828809E-06  9.55828809E-06  9.55828809E-06  9.55828809E-06  9.55828809E-06  9.55828809E-06  9.55828809E-06  9.55828809E-06  9.55828809E-06  9.55828809E-06  9.55828809E-06  9.55828809E-06  9.55828809E-06  9.55828809E-06  9.55828809E-06  9.55828809E-06  9.55828809E-06  9.55828809E-06  9.55828809E-06  9.55828809E-06  9.55828809E-06  9.55828809E-06  9.55828809E-06  9.55828809E-06  9.55828809E-06  9.55828809E-06  9.55828809E-06  9.55828809E-06  9.55828809E-06  9.55828809E-06  9.55828809E-06  9.55828809E-06  9.55828809E-06  9.55828809E-06  9.55828809E-06  9.55828809E-06  9.55828809E-06  9.55828809E-06  9.55828809E-06  9.55828809E-06  9.55828809E-06  9.55828809E-06  9.55828809E-06  9.55828809E-06  9.55828809E-06  9.55828809E-06  9.55828809E-06  9.55828809E-06  9.55828809E-06  9.55828809E-06  9.55828809E-06  9.55828809E-06  9.55828809E-06  9.55828809E-06  9.55828809E-06  9.55828809E-06  9.55828809E-06  9.55828809E-06  9.55828809E-06  9.55828809E-06  9.55828809E-06  9.55828809E-06  9.55828809E-06  9.55828809E-06  9.55828809E-06  9.55828809E-06  9.55828809E-06  9.55828809E-06  9.55828809E-06  9.55828809E-06  9.55828809E-06  9.55828809E-06  9.55828809E-06  9.55828809E-06  9.55828809E-06  9.55828809E-06  9.55828809E-06  9.55828809E-06  9.55828809E-06  9.55828809E-06  9.55828809E-06  9.55828809E-06  9.55828809E-06  9.55828809E-06  9.55828809E-06  9.55828809E-06  9.55828809E-06  9.55828809E-06  9.55828809E-06  9.55828809E-06  9.55828809E-06  9.55828809E-06  9.55828809E-06  9.55828809E-06  9.55828809E-06  9.55828809E-06  9.55828809E-06  9.55828809E-06  9.55828809E-06  9.55828809E-06  9.55828809E-06  9.55828809E-06  9.55828809E-06  9.55828809E-06  9.55828809E-06  9.55828809E-06  9.55828809E-06  9.55828809E-06  9.55828809E-06  9.55828809E-06  9.55828809E-06  9.55828809E-06  9.55828809E-06  9.55828809E-06  9.55828809E-06  9.55828809E-06  9.55828809E-06  9.55828809E-06  9.55828809E-06  9.55828809E-06  9.55828809E-06  9.55828809E-06  9.55828809E-06  9.55828809E-06  9.55828809E-06  9.55828809E-06  9.55828809E-06  9.55828809E-06  9.55828809E-06  9.55828809E-06  9.55828809E-06  9.55828809E-06  9.55828809E-06  9.55828809E-06  9.55828809E-06  9.55828809E-06  9.55828809E-06  9.55828809E-06  9.55828809E-06  9.55828809E-06  9.55828809E-06  9.55828809E-06  9.55828809E-06  9.55828809E-06  9.55828809E-06  9.55828809E-06  9.55828809E-06  9.55828809E-06  9.55828809E-06  9.55828809E-06  9.55828809E-06  9.55828809E-06  9.55828809E-06  9.55828809E-06  9.55828809E-06  9.55828809E-06  9.55828809E-06  9.55828809E-06  9.55828809E-06  9.55828809E-06  9.55828809E-06  9.55828809E-06  9.55828809E-06  9.55828809E-06  9.55828809E-06  9.55828809E-06  9.55828809E-06  9.55828809E-06  9.55828809E-06  9.55828809E-06  9.55828809E-06  9.55828809E-06  9.55828809E-06  9.55828809E-06  9.55828809E-06  9.55828809E-06  9.55828809E-06  9.55828809E-06  9.55828809E-06  9.55828809E-06  9.55828809E-06  9.55828809E-06  9.55828809E-06  9.55828809E-06  9.55828809E-06  9.55828809E-06  9.55828809E-06  9.55828809E-06  9.55828809E-06  9.55828809E-06  9.55828809E-06  6.21374678E-04  6.21374678E-04  6.21374678E-04  6.21374678E-04  6.21374678E-04  6.21374678E-04  6.21374678E-04  6.21374678E-04  6.21374678E-04  6.21374678E-04  6.21374678E-04  6.21374678E-04  6.21374678E-04  6.21374678E-04  6.21374678E-04  6.21374678E-04  6.21374678E-04  6.21374678E-04  6.21374678E-04  6.21374678E-04  6.21374678E-04  6.21374678E-04  6.21374678E-04  6.21374678E-04  6.21374678E-04  6.21374678E-04  6.21374678E-04  6.21374678E-04  6.21374678E-04  6.21374678E-04  6.21374678E-04  6.21374678E-04  6.21374678E-04  6.21374678E-04  6.21374678E-04  6.21374678E-04  6.21374678E-04  6.21374678E-04  6.21374678E-04  6.21374678E-04  6.21374678E-04  6.21374678E-04  6.21374678E-04  6.21374678E-04  6.21374678E-04  6.21374678E-04  6.21374678E-04  6.21374678E-04  6.21374678E-04  6.21374678E-04  6.21374678E-04  6.21374678E-04  6.21374678E-04  6.21374678E-04  6.21374678E-04  6.21374678E-04  6.21374678E-04  6.21374678E-04  6.21374678E-04  6.21374678E-04  6.21374678E-04  6.21374678E-04  6.21374678E-04  6.21374678E-04  6.21374678E-04  6.21374678E-04  6.21374678E-04  6.21374678E-04  6.21374678E-04  6.21374678E-04  6.21374678E-04  6.21374678E-04  6.21374678E-04  6.21374678E-04  6.21374678E-04  6.21374678E-04  6.21374678E-04  6.21374678E-04  6.21374678E-04  6.21374678E-04  6.21374678E-04  6.21374678E-04  6.21374678E-04  6.21374678E-04  6.21374678E-04  6.21374678E-04  6.21374678E-04  6.21374678E-04  6.21374678E-04  6.21374678E-04  6.21374678E-04  6.21374678E-04  6.21374678E-04  6.21374678E-04  6.21374678E-04  6.21374678E-04  6.21374678E-04  6.21374678E-04  6.21374678E-04  6.21374678E-04  6.21374678E-04  6.21374678E-04  6.21374678E-04  6.21374678E-04  6.21374678E-04  6.21374678E-04  6.21374678E-04  6.21374678E-04  6.21374678E-04  6.21374678E-04  6.21374678E-04  6.21374678E-04  6.21374678E-04  6.21374678E-04  6.21374678E-04  6.21374678E-04  6.21374678E-04  6.21374678E-04  6.21374678E-04  6.21374678E-04  6.21374678E-04  6.21374678E-04  6.21374678E-04  6.21374678E-04  6.21374678E-04  6.21374678E-04  6.21374678E-04  6.21374678E-04  6.21374678E-04  6.21374678E-04  6.21374678E-04  6.21374678E-04  6.21374678E-04  6.21374678E-04  6.21374678E-04  6.21374678E-04  6.21374678E-04  6.21374678E-04  6.21374678E-04  6.21374678E-04  6.21374678E-04  6.21374678E-04  6.21374678E-04  6.21374678E-04  6.21374678E-04  6.21374678E-04  6.21374678E-04  6.21374678E-04  6.21374678E-04  6.21374678E-04  1.30974354E-05  1.30974354E-05  1.30974354E-05  1.30974354E-05  1.30974354E-05  1.30974354E-05  1.30974354E-05  1.30974354E-05  1.30974354E-05  1.30974354E-05  1.30974354E-05  1.30974354E-05  1.30974354E-05  1.30974354E-05  1.30974354E-05  1.30974354E-05  1.30974354E-05  1.30974354E-05  1.30974354E-05  1.30974354E-05  1.30974354E-05  1.30974354E-05  1.30974354E-05  1.30974354E-05  1.30974354E-05  1.30974354E-05  1.30974354E-05  1.30974354E-05  1.30974354E-05  1.30974354E-05  1.30974354E-05  1.30974354E-05  1.30974354E-05  1.30974354E-05  1.30974354E-05  1.30974354E-05  1.30974354E-05  1.30974354E-05  1.30974354E-05  1.30974354E-05  1.30974354E-05  1.30974354E-05  1.30974354E-05  1.30974354E-05  1.30974354E-05  1.30974354E-05  1.30974354E-05  1.30974354E-05  1.30974354E-05  1.30974354E-05  1.30974354E-05  1.30974354E-05  1.30974354E-05  1.30974354E-05  1.30974354E-05  1.30974354E-05  1.30974354E-05  1.30974354E-05  1.30974354E-05  1.30974354E-05  1.30974354E-05  1.30974354E-05  1.30974354E-05  1.30974354E-05  1.30974354E-05  1.30974354E-05  1.30974354E-05  1.30974354E-05  1.30974354E-05  1.30974354E-05  1.30974354E-05  1.30974354E-05  1.30974354E-05  1.30974354E-05  1.30974354E-05  1.30974354E-05  1.30974354E-05  1.30974354E-05  1.30974354E-05  1.30974354E-05  1.30974354E-05  1.30974354E-05  1.30974354E-05  1.30974354E-05  1.30974354E-05  1.30974354E-05  1.30974354E-05  1.30974354E-05  1.30974354E-05  1.30974354E-05  1.30974354E-05  1.30974354E-05  1.30974354E-05  1.30974354E-05  1.30974354E-05  1.30974354E-05  1.30974354E-05  1.30974354E-05  1.30974354E-05  1.30974354E-05  1.30974354E-05  1.30974354E-05  1.30974354E-05  1.30974354E-05  1.30974354E-05  1.30974354E-05  1.30974354E-05  1.30974354E-05  1.30974354E-05  1.30974354E-05  1.30974354E-05  1.30974354E-05  1.30974354E-05  1.30974354E-05  1.30974354E-05  1.30974354E-05  1.30974354E-05  1.30974354E-05  1.30974354E-05  1.30974354E-05  1.30974354E-05  1.30974354E-05  1.30974354E-05  1.30974354E-05  1.30974354E-05  1.30974354E-05  1.30974354E-05  1.30974354E-05  1.30974354E-05  1.30974354E-05  1.30974354E-05  1.30974354E-05  1.30974354E-05  1.30974354E-05  1.30974354E-05  1.30974354E-05  1.30974354E-05  1.30974354E-05  1.30974354E-05  1.30974354E-05  1.30974354E-05  1.30974354E-05  1.30974354E-05  1.30974354E-05  1.30974354E-05  1.30974354E-05  1.30974354E-05  1.30974354E-05  1.30974354E-05  1.30974354E-05  1.30974354E-05  1.30974354E-05  1.30974354E-05  1.30974354E-05  1.30974354E-05  1.30974354E-05  1.30974354E-05  1.30974354E-05  1.30974354E-05  1.30974354E-05  1.30974354E-05  1.30974354E-05  1.30974354E-05  1.30974354E-05  1.30974354E-05  1.30974354E-05  1.30974354E-05  1.30974354E-05  1.30974354E-05  1.30974354E-05  1.30974354E-05  1.30974354E-05  1.30974354E-05  1.30974354E-05  1.30974354E-05  1.30974354E-05  1.30974354E-05  1.30974354E-05  1.30974354E-05  1.30974354E-05  1.30974354E-05  1.30974354E-05  1.30974354E-05  1.30974354E-05  1.30974354E-05  1.30974354E-05  1.30974354E-05  1.30974354E-05  1.30974354E-05  1.30974354E-05  1.30974354E-05  1.30974354E-05  1.30974354E-05  1.30974354E-05  1.30974354E-05  1.30974354E-05  1.30974354E-05  1.30974354E-05  1.30974354E-05  1.30974354E-05  1.30974354E-05  1.30974354E-05  1.30974354E-05  1.30974354E-05  1.30974354E-05  1.30974354E-05  1.30974354E-05  1.30974354E-05  1.30974354E-05  1.30974354E-05  1.30974354E-05  1.30974354E-05  1.30974354E-05  1.30974354E-05  1.30974354E-05  1.30974354E-05  1.30974354E-05  1.30974354E-05  1.30974354E-05  1.30974354E-05  1.30974354E-05  1.30974354E-05  1.30974354E-05  1.30974354E-05  1.30974354E-05  1.30974354E-05  1.30974354E-05  1.30974354E-05  1.30974354E-05  1.30974354E-05  1.30974354E-05  1.30974354E-05  1.30974354E-05  1.30974354E-05  1.30974354E-05  1.30974354E-05  1.30974354E-05  1.30974354E-05  1.30974354E-05  1.30974354E-05  1.30974354E-05  1.30974354E-05  1.30974354E-05  1.30974354E-05  1.30974354E-05  1.30974354E-05  1.30974354E-05  1.30974354E-05  1.30974354E-05  1.30974354E-05  1.30974354E-05  1.30974354E-05  1.30974354E-05  1.30974354E-05  1.30974354E-05  1.30974354E-05  1.30974354E-05  1.30974354E-05  1.30974354E-05  1.30974354E-05  1.30974354E-05  1.30974354E-05  1.30974354E-05  1.30974354E-05  1.30974354E-05  1.30974354E-05  1.30974354E-05  1.30974354E-05  1.30974354E-05  1.30974354E-05  1.30974354E-05  1.30974354E-05  1.30974354E-05  1.30974354E-05  1.30974354E-05  1.30974354E-05  1.30974354E-05  1.30974354E-05  1.30974354E-05  1.30974354E-05  1.30974354E-05  1.30974354E-05  1.30974354E-05  1.30974354E-05  1.30974354E-05  1.30974354E-05  1.30974354E-05  1.30974354E-05  1.30974354E-05  1.30974354E-05  1.30974354E-05  1.30974354E-05  1.30974354E-05  1.30974354E-05  1.30974354E-05  1.30974354E-05  1.30974354E-05  1.30974354E-05  1.30974354E-05  1.30974354E-05
END griddata

