# File generated by Flopy version 3.9.2 on 11/13/2025 at 09:36:20.
BEGIN options
END options

BEGIN griddata
  strt
    CONSTANT      50.00000000
END griddata

