# File generated by Flopy version 3.9.2 on 11/13/2025 at 09:36:20.
BEGIN options
END options

BEGIN dimensions
  MAXBOUND  2
END dimensions

BEGIN period  1
  1 1 1 4.00000000E+01
  1 1 1000 4.00000000E+01
END period  1

