# File generated by Flopy version 3.9.2 on 11/13/2025 at 09:36:20.
BEGIN options
  HEAD  FILEOUT  ex-gwf-leaky.hds
END options

BEGIN period  1
  SAVE  HEAD  ALL
END period  1

