# File generated by Flopy version 3.9.2 on 11/13/2025 at 09:36:20.
BEGIN options
  NEWTON
END options

BEGIN packages
  DIS6  ex-gwf-leaky.dis  dis
  NPF6  ex-gwf-leaky.npf  npf
  IC6  ex-gwf-leaky.ic  ic
  CHD6  ex-gwf-leaky.chd  chd_0
  GHB6  ex-gwf-leaky.ghb  ghb_0
  OC6  ex-gwf-leaky.oc  oc
END packages

