# File generated by Flopy version 3.9.2 on 11/13/2025 at 09:36:20.
BEGIN options
END options

BEGIN timing
  TDIS6  ex-gwf-leaky.tdis
END timing

BEGIN models
  gwf6  ex-gwf-leaky.nam  ex-gwf-leaky
END models

BEGIN exchanges
END exchanges

BEGIN solutiongroup  1
  ims6  ex-gwf-leaky.ims  ex-gwf-leaky
END solutiongroup  1

